data/crac/crac-io/crac-io-fb-constraint/src/test/resources/fake-hvdc/network_mini2_hvdc_disconnected_from_main_connected_component.uct
##C 2007.05.01
##N
##ZDE
D4AAA21B              0 2  400.0       0       0   -1000       0    1000   -1000     500    -500
D4AAA11B              0 2  400.0       0       0   -1000       0    1000   -1000     500    -500
D4ZZZX14              0 0              0       0       0       0
D4ZZZX13              0 0              0       0       0       0
D4ZZZX12              0 0              0       0       0       0
D4ZZZX11              0 0              0       0       0       0
D7AAA21A              0 2  400.0       0       0    1000       0    1000   -1000     500    -500
D7AAA11A              0 2  400.0       0       0    1000       0    1000   -1000     500    -500
D7BBBX14              0 0              0       0       0       0
D7BBBX13              0 0              0       0       0       0
D7654311              0 0        0.00000 0.00000 0.00000 0.00000
D4567810              0 0        0.00000 0.00000 0.00000 0.00000
D0000011              0 0              0       0       0       0

D0000110              0 0        0.00000 0.00000 0.00000 0.00000
D0000210              0 0        0.00000 0.00000 0.00000 0.00000
D0000310              0 0        0.00000 0.00000 0.00000 0.00000
D0000410              0 0        0.00000 0.00000 0.00000 0.00000
D0000510              0 0        0.00000 0.00000 0.00000 0.00000
D0000610              0 0        0.00000 0.00000 0.00000 0.00000
D0000710              0 0        0.00000 0.00000 0.00000 0.00000
D0000810              0 0        0.00000 0.00000 0.00000 0.00000
D0000910              0 0        0.00000 0.00000 0.00000 0.00000
D0001010              0 0        0.00000 0.00000 0.00000 0.00000
D0001110              0 0        0.00000 0.00000 0.00000 0.00000
D0001210              0 0        0.00000 0.00000 0.00000 0.00000
D0001310              0 0        0.00000 0.00000 0.00000 0.00000
D0001410              0 0        0.00000 0.00000 0.00000 0.00000
D0001510              0 0        0.00000 0.00000 0.00000 0.00000
##L
D7BBBX13 D7AAA11A 1 0 0.0030 0.5000        0   3150 UNET P1 OSTR
D7BBBX14 D7AAA21A 1 0 0.0030 0.5000        0   3150 UNET P2 OSTR
D7BBBX13 D7654311 1 0 0.0030 0.5000        0   3150
D7BBBX14 D7654311 1 0 0.0030 0.5000        0   3150
D4ZZZX11 D4567810 1 0 0.0100 0.1300 2.399860   3600 PH1GNPHI
D4ZZZX12 D4567810 2 0 0.0100 0.1300 2.399860   3600 PH1SWPHI
D4ZZZX13 D4AAA11B 1 0 0.0030 0.5000        0   3150 UNET P1 PHIL
D4ZZZX14 D4AAA21B 1 0 0.0030 0.5000        0   3150 UNET P2 PHIL
D4ZZZX13 D4ZZZX11 1 0 0.0030 0.5000        0   3150
D4ZZZX14 D4ZZZX12 1 0 0.0030 0.5000        0   3150
D7654311 D4567810 1 0 0.0030 0.5000        0   3150
D0000011 D4567810 1 0 0.0000 0.0000        0   3150 CB1

D0000110 D0000210 1 0 0.0030 0.5000        0   3150
D0000110 D0000310 1 0 0.0030 0.5000        0   3150
D0000110 D0000410 1 0 0.0030 0.5000        0   3150
D0000110 D0000510 1 0 0.0030 0.5000        0   3150
D0000110 D0000610 1 0 0.0030 0.5000        0   3150
D0000110 D0000710 1 0 0.0030 0.5000        0   3150
D0000110 D0000810 1 0 0.0030 0.5000        0   3150
D0000110 D0000910 1 0 0.0030 0.5000        0   3150
D0000110 D0001010 1 0 0.0030 0.5000        0   3150
D0000110 D0001110 1 0 0.0030 0.5000        0   3150
D0000110 D0001210 1 0 0.0030 0.5000        0   3150
D0000110 D0001310 1 0 0.0030 0.5000        0   3150
D0000110 D0001410 1 0 0.0030 0.5000        0   3150
D0000110 D0001510 1 0 0.0030 0.5000        0   3150
##T
##R
